Version 4
SHEET 1 5320 680
WIRE 2048 -112 2032 -112
WIRE 2608 -96 2032 -96
WIRE 2048 -80 2048 -112
WIRE 2048 -80 2032 -80
WIRE 1968 -64 80 -64
WIRE 2128 -64 2032 -64
WIRE 2048 -48 2048 -80
WIRE 2048 -48 2032 -48
WIRE 2048 -32 2048 -48
WIRE 4176 -32 4080 -32
WIRE 4544 -32 4416 -32
WIRE 4080 48 4080 -32
WIRE 80 144 80 -64
WIRE 144 144 80 144
WIRE 368 144 304 144
WIRE 592 144 528 144
WIRE 816 144 752 144
WIRE 1040 144 976 144
WIRE 1264 144 1200 144
WIRE 1488 144 1424 144
WIRE 1712 144 1648 144
WIRE 1936 144 1872 144
WIRE 2128 144 2128 -64
WIRE 2128 144 2096 144
WIRE 2160 144 2128 144
WIRE 2384 144 2320 144
WIRE 2608 144 2608 -96
WIRE 2608 144 2544 144
FLAG 144 192 clk
FLAG 368 192 clk
FLAG 592 192 clk
FLAG 816 192 clk
FLAG 1040 192 clk
FLAG 1264 192 clk
FLAG 1488 192 clk
FLAG 1712 192 clk
FLAG 1936 192 clk
FLAG 2160 192 clk
FLAG 2384 192 clk
FLAG 320 -432 clk
FLAG 320 -352 0
FLAG 704 -432 pre
FLAG 704 -352 0
FLAG 144 240 0
FLAG 224 240 0
FLAG 368 240 0
FLAG 448 240 0
FLAG 592 240 0
FLAG 672 240 0
FLAG 816 240 0
FLAG 896 240 0
FLAG 1040 240 0
FLAG 1120 240 0
FLAG 1264 240 0
FLAG 1344 240 0
FLAG 1488 240 0
FLAG 1568 240 0
FLAG 1712 240 0
FLAG 1792 240 0
FLAG 1936 240 0
FLAG 2016 240 0
FLAG 2160 240 0
FLAG 2240 240 0
FLAG 2384 240 0
FLAG 2464 240 0
FLAG 2048 -32 0
FLAG 448 96 0
FLAG 672 96 0
FLAG 896 96 0
FLAG 1120 96 0
FLAG 1344 96 0
FLAG 1568 96 0
FLAG 1792 96 0
FLAG 2016 96 0
FLAG 2240 96 0
FLAG 2464 96 0
FLAG 224 96 pre
FLAG 2608 144 SBPA
FLAG 1104 -432 carrier
FLAG 1104 -352 0
FLAG 1456 -432 BPSK
FLAG 1456 -352 0
FLAG 4688 -32 VCO
FLAG 3600 -80 Q_arm
FLAG 3600 144 I_arm
FLAG 3840 -80 Q_filter
FLAG 3840 144 I_filter
FLAG 1792 -432 Q_arm
FLAG 1792 -352 0
FLAG 2160 -432 I_arm
FLAG 2160 -352 0
FLAG 4688 32 VCO_90
FLAG 4080 128 0
FLAG 4960 0 SBPA
FLAG 5200 0 SBPA_ny
FLAG 2880 128 0
FLAG 2880 48 noise
FLAG 3168 48 BPSK_noise
FLAG 3168 128 0
SYMBOL Digital\\dflop 224 96 R0
WINDOW 3 0 0 Invisible 0
SYMATTR Value Ref=0
SYMATTR InstName A1
SYMATTR Value2 Vhigh=1 Vlow=-1
SYMATTR SpiceLine2 td=10n
SYMBOL Digital\\xor 1984 -16 R180
WINDOW 3 16 -4 Left 2
SYMATTR Value ref=0
SYMATTR InstName A12
SYMATTR Value2 Vhigh=1 Vlow=-1
SYMBOL voltage 320 -448 R0
WINDOW 123 0 0 Left 0
WINDOW 39 0 0 Left 0
SYMATTR InstName V1
SYMATTR Value PULSE(1 -1 0 0 0 500n 1u)
SYMBOL voltage 704 -448 R0
WINDOW 123 0 0 Left 0
WINDOW 39 0 0 Left 0
SYMATTR InstName V2
SYMATTR Value PULSE(-1 1 500n 0 0 1u 0 1)
SYMBOL Digital\\dflop 448 96 R0
WINDOW 3 0 0 Invisible 0
SYMATTR Value Ref=0
SYMATTR InstName A2
SYMATTR Value2 Vhigh=1 Vlow=-1
SYMATTR SpiceLine2 td=10n
SYMBOL Digital\\dflop 672 96 R0
WINDOW 3 0 0 Invisible 0
SYMATTR Value Ref=0
SYMATTR InstName A3
SYMATTR Value2 Vhigh=1 Vlow=-1
SYMATTR SpiceLine2 td=10n
SYMBOL Digital\\dflop 896 96 R0
WINDOW 3 0 0 Invisible 0
SYMATTR Value Ref=0
SYMATTR InstName A4
SYMATTR Value2 Vhigh=1 Vlow=-1
SYMATTR SpiceLine2 td=10n
SYMBOL Digital\\dflop 1120 96 R0
WINDOW 3 0 0 Invisible 0
SYMATTR Value Ref=0
SYMATTR InstName A5
SYMATTR Value2 Vhigh=1 Vlow=-1
SYMATTR SpiceLine2 td=10n
SYMBOL Digital\\dflop 1344 96 R0
WINDOW 3 0 0 Invisible 0
SYMATTR Value Ref=0
SYMATTR InstName A6
SYMATTR Value2 Vhigh=1 Vlow=-1
SYMATTR SpiceLine2 td=10n
SYMBOL Digital\\dflop 1568 96 R0
WINDOW 3 0 0 Invisible 0
SYMATTR Value Ref=0
SYMATTR InstName A7
SYMATTR Value2 Vhigh=1 Vlow=-1
SYMATTR SpiceLine2 td=10n
SYMBOL Digital\\dflop 1792 96 R0
WINDOW 3 0 0 Invisible 0
SYMATTR Value Ref=0
SYMATTR InstName A8
SYMATTR Value2 Vhigh=1 Vlow=-1
SYMATTR SpiceLine2 td=10n
SYMBOL Digital\\dflop 2016 96 R0
WINDOW 3 0 0 Invisible 0
SYMATTR Value Ref=0
SYMATTR InstName A9
SYMATTR Value2 Vhigh=1 Vlow=-1
SYMATTR SpiceLine2 td=10n
SYMBOL Digital\\dflop 2240 96 R0
WINDOW 3 0 0 Invisible 0
SYMATTR Value Ref=0
SYMATTR InstName A10
SYMATTR Value2 Vhigh=1 Vlow=-1
SYMATTR SpiceLine2 td=10n
SYMBOL Digital\\dflop 2464 96 R0
WINDOW 3 0 0 Invisible 0
SYMATTR Value Ref=0
SYMATTR InstName A11
SYMATTR Value2 Vhigh=1 Vlow=-1
SYMATTR SpiceLine2 td=10n
SYMBOL voltage 1024 -448 R0
WINDOW 123 0 0 Left 0
WINDOW 39 0 0 Left 0
SYMATTR InstName V3
SYMATTR Value SINE(0 1 70000000 0 0 0 0)
SYMBOL bv 1456 -448 R0
SYMATTR InstName B1
SYMATTR Value V=V(carrier)*V(SBPA)
SYMBOL SpecialFunctions\\2ndOrdLowpass 4256 -48 R0
SYMATTR InstName U1
SYMATTR Value f0=14Meg Q=0.3 H=1
SYMBOL SpecialFunctions\\2ndOrdLowpass 3680 -96 R0
SYMATTR InstName U2
SYMATTR Value f0=14Meg Q=0.3 H=1
SYMBOL SpecialFunctions\\2ndOrdLowpass 3680 128 R0
SYMATTR InstName U3
SYMATTR Value f0=14Meg Q=0.3 H=1
SYMBOL bv 1792 -448 R0
SYMATTR InstName B3
SYMATTR Value V=V(VCO)*V(BPSK_noise)
SYMBOL bv 2160 -448 R0
SYMATTR InstName B4
SYMATTR Value V=V(VCO_90)*V(BPSK_noise)
SYMBOL SpecialFunctions\\modulate2 4544 -32 R0
WINDOW 3 -69 -78 Left 2
SYMATTR InstName A15
SYMATTR Value space=70Meg mark=90Meg
SYMBOL bv 4080 32 R0
SYMATTR InstName B2
SYMATTR Value V=V(Q_filter)*V(I_filter)
SYMBOL SpecialFunctions\\2ndOrdLowpass 5040 -16 R0
SYMATTR InstName U4
SYMATTR Value f0=14Meg Q=0.1 H=1
SYMBOL bv 2880 32 R0
SYMATTR InstName B5
SYMATTR Value V=white(2e9*time)
SYMBOL bv 3168 32 R0
SYMATTR InstName B6
SYMATTR Value V=V(BPSK)+V(noise)
TEXT 104 -96 Left 2 !.tran 0.0005
TEXT 4368 -184 Left 2 ;PLL
TEXT 3672 -192 Left 2 ;Arms filter
TEXT 1232 -144 Left 2 ;Random signal generator
TEXT 3000 -88 Left 2 ;Noise
TEXT 5008 -136 Left 2 ;Nyquist filter
